studies/australian_pv/source/LV3_55bus/Groundings.dss
new reactor.tx_busgrounding_B641 phases=1 bus1=B641.4 bus2=B641.0 r=0.3 x=0.0
new reactor.loadbusgrounding_B828 phases=1 bus1=B828.4 bus2=B828.0 r=10.0 x=0.0
new reactor.loadbusgrounding_B2560 phases=1 bus1=B2560.4 bus2=B2560.0 r=10.0 x=0.0
new reactor.loadbusgrounding_B1821 phases=1 bus1=B1821.4 bus2=B1821.0 r=10.0 x=0.0
new reactor.loadbusgrounding_B1044 phases=1 bus1=B1044.4 bus2=B1044.0 r=10.0 x=0.0
new reactor.loadbusgrounding_B260 phases=1 bus1=B260.4 bus2=B260.0 r=10.0 x=0.0
new reactor.loadbusgrounding_B2055 phases=1 bus1=B2055.4 bus2=B2055.0 r=10.0 x=0.0
new reactor.loadbusgrounding_B1804 phases=1 bus1=B1804.4 bus2=B1804.0 r=10.0 x=0.0
new reactor.loadbusgrounding_B2443 phases=1 bus1=B2443.4 bus2=B2443.0 r=10.0 x=0.0
new reactor.loadbusgrounding_B2492 phases=1 bus1=B2492.4 bus2=B2492.0 r=10.0 x=0.0
new reactor.loadbusgrounding_B2190 phases=1 bus1=B2190.4 bus2=B2190.0 r=10.0 x=0.0
new reactor.loadbusgrounding_B1754 phases=1 bus1=B1754.4 bus2=B1754.0 r=10.0 x=0.0
new reactor.loadbusgrounding_B605 phases=1 bus1=B605.4 bus2=B605.0 r=10.0 x=0.0
